

--------------------------------------------------------------------------------

Command: run Delft3D-FLOW
   Starting Delft3D-FLOW computation ...
--------------------------------------------------------------------------------
       Deltares, FLOW2D3D Version 6.03.00.65662M, Dec 15 2019, 21:43:36
       flow2d3d.dll entry Flow2D3D::Run
--------------------------------------------------------------------------------

Part I    - Initialisation Time Dep. Data module...    
            runid : river_462291884
Part II   - Creating intermediate files...             
ABORT: error returned by tdatmain
 Flow exited abnormally
ABORT in FLOW2D3D: An exception occurred

child process exited abnormally
